LTspice 24.1.7 for Windows
Circuit: E:\Síntesis de Redes Activas\Tps\VFA-CFA_2.net
Start Time: Mon Dec  8 11:55:16 2025
solver = Normal
Maximum thread count: 8
tnom = 27
temp = 27
method = trap
Direct Newton iteration failed to find .op point.  (Use ".option noopiter" to skip.)
Starting Gmin stepping
Increasing initial diagonal Gmin to 100
Gmin = 100
vernier = 0.5
vernier = 0.25
vernier = 0.125
Gmin = 40.96
vernier = 0.0625
vernier = 0.03125
vernier = 0.015625
Gmin = 38.6536
vernier = 0.0078125
vernier = 0.00390625
vernier = 0.00195312
vernier = 0.000976562
Gmin = 38.7006
vernier = 0.000488281
Gmin = 0
Gmin stepping failed

Starting source stepping with srcstepmethod=0
Source Step = 3.0303%
Source Step = 33.3333%
Source Step = 63.6364%
Source Step = 86.3636%
Source Step = 87.8788%
Source Step = 88.3523%
Source Step = 88.8258%
Source Step = 89.2992%
Source Step = 89.7727%
vernier = 0.0234375
Source Step = 90.3172%
Source Step = 91.0275%
Source Step = 91.7377%
Source Step = 92.4479%
Source Step = 93.1581%
vernier = 0.0351562
Source Step = 93.9394%
Source Step = 95.0047%
Source Step = 96.0701%
Source Step = 97.1354%
Source Step = 98.2008%
vernier = 0.0527344
Source Step = 99.3194%
Source stepping succeeded in finding the operating point.

Total elapsed time: 7.602 seconds.

Files loaded:
E:\Síntesis de Redes Activas\Tps\VFA-CFA_2.net
E:\LM324.lib
E:\LM6181.lib

